Circuit: * C:\Users\david\Desktop\École\Université\Undergrad\Work\finalproject\capacitorDCoof.asc

Direct Newton iteration for .op point succeeded.

Date: Sat Jun 13 19:37:18 2020
Total elapsed time: 0.055 seconds.

tnom = 27
temp = 27
method = trap
totiter = 3
traniter = 0
tranpoints = 0
accept = 0
rejected = 0
matrix size = 6
fillins = 0
solver = Normal
Matrix Compiler1: 146 bytes object code size
Matrix Compiler2: 360 bytes object code size
