Circuit: * C:\Users\david\Desktop\École\Université\Undergrad\Work\finalproject\ooftest4.asc

Direct Newton iteration for .op point succeeded.

Date: Fri Jun 12 17:48:06 2020
Total elapsed time: 0.216 seconds.

tnom = 27
temp = 27
method = modified trap
totiter = 2085
traniter = 2082
tranpoints = 1042
accept = 1042
rejected = 0
matrix size = 6
fillins = 0
solver = Normal
Matrix Compiler1: 128 bytes object code size  0.1/0.0/[0.0]
Matrix Compiler2: 366 bytes object code size  0.1/0.1/[0.1]

