Circuit: * C:\Users\david\Desktop\École\Université\Undergrad\Work\finalproject\ooftest.asc

Direct Newton iteration for .op point succeeded.

Date: Mon Jun 08 18:41:23 2020
Total elapsed time: 0.041 seconds.

tnom = 27
temp = 27
method = trap
totiter = 3
traniter = 0
tranpoints = 0
accept = 0
rejected = 0
matrix size = 5
fillins = 0
solver = Normal
Matrix Compiler1: 78 bytes object code size
Matrix Compiler2: 313 bytes object code size
