Circuit: * C:\Users\david\Desktop\École\Université\Undergrad\Work\finalproject\ooftest.asc

Direct Newton iteration for .op point succeeded.

Date: Mon Jun 08 01:17:04 2020
Total elapsed time: 0.071 seconds.

tnom = 27
temp = 27
method = trap
totiter = 3
traniter = 0
tranpoints = 0
accept = 0
rejected = 0
matrix size = 5
fillins = 0
solver = Normal
Matrix Compiler1:       5 opcodes
Matrix Compiler2:      26 opcodes
