Circuit: * C:\Users\david\Desktop\École\Université\Undergrad\Work\finalproject\ooftest.asc

Direct Newton iteration for .op point succeeded.

Date: Mon Jun 08 16:27:42 2020
Total elapsed time: 0.040 seconds.

tnom = 27
temp = 27
method = trap
totiter = 3
traniter = 0
tranpoints = 0
accept = 0
rejected = 0
matrix size = 4
fillins = 0
solver = Normal
Matrix Compiler1: 64 bytes object code size
Matrix Compiler2: 214 bytes object code size
