Circuit: * C:\Users\david\Desktop\École\Université\Undergrad\Work\finalproject\Real\Transients\BIGtest-tran.asc

Direct Newton iteration for .op point succeeded.

Date: Sun Jun 14 02:35:12 2020
Total elapsed time: 0.073 seconds.

tnom = 27
temp = 27
method = modified trap
totiter = 2085
traniter = 2082
tranpoints = 1042
accept = 1042
rejected = 0
matrix size = 19
fillins = 8
solver = Normal
Matrix Compiler1: 1.32 KB object code size  0.2/0.1/[0.1]
Matrix Compiler2: 1.51 KB object code size  0.1/0.2/[0.1]

