Circuit: * C:\Users\david\Desktop\École\Université\Undergrad\Work\finalproject\Real\Transients\BIGtest-tran.asc

WARNING: Node N009 is floating.

Direct Newton iteration for .op point succeeded.

Date: Thu Jun 11 16:58:05 2020
Total elapsed time: 0.101 seconds.

tnom = 27
temp = 27
method = modified trap
totiter = 2126
traniter = 2123
tranpoints = 1053
accept = 1051
rejected = 2
matrix size = 20
fillins = 10
solver = Normal
Matrix Compiler1: 1.45 KB object code size  0.3/0.2/[0.1]
Matrix Compiler2: 1.62 KB object code size  0.1/0.2/[0.1]

