Circuit: * C:\Users\david\Desktop\École\Université\Undergrad\Work\finalproject\Real\Transients\Draft1.asc

Direct Newton iteration for .op point succeeded.

Date: Fri Jun 12 17:31:42 2020
Total elapsed time: 0.144 seconds.

tnom = 27
temp = 27
method = modified trap
totiter = 2085
traniter = 2082
tranpoints = 1042
accept = 1042
rejected = 0
matrix size = 8
fillins = 0
solver = Normal
Matrix Compiler1: 174 bytes object code size  0.1/0.0/[0.0]
Matrix Compiler2: 478 bytes object code size  0.1/0.1/[0.1]

