Circuit: * C:\Users\david\Desktop\École\Université\Undergrad\Work\finalproject\Real\Transients\Draft2.asc

Direct Newton iteration for .op point succeeded.

Date: Sat Jun 13 20:05:39 2020
Total elapsed time: 0.070 seconds.

tnom = 27
temp = 27
method = modified trap
totiter = 2085
traniter = 2082
tranpoints = 1042
accept = 1042
rejected = 0
matrix size = 8
fillins = 0
solver = Normal
Matrix Compiler1: 210 bytes object code size  0.1/0.0/[0.0]
Matrix Compiler2: 546 bytes object code size  0.1/0.1/[0.1]

