Circuit: * C:\Users\david\Desktop\École\Université\Undergrad\Work\finalproject\Real\Transients\Draft1.asc

Direct Newton iteration for .op point succeeded.

Date: Thu Jun 11 22:45:39 2020
Total elapsed time: 0.063 seconds.

tnom = 27
temp = 27
method = trap
totiter = 3
traniter = 0
tranpoints = 0
accept = 0
rejected = 0
matrix size = 7
fillins = 1
solver = Normal
Matrix Compiler1: 232 bytes object code size
Matrix Compiler2: 421 bytes object code size
