Circuit: * C:\Users\david\Desktop\École\Université\Undergrad\Work\finalproject\Real\Transients\Draft1.asc

Direct Newton iteration for .op point succeeded.

Date: Thu Jun 11 17:39:44 2020
Total elapsed time: 0.089 seconds.

tnom = 27
temp = 27
method = trap
totiter = 3
traniter = 0
tranpoints = 0
accept = 0
rejected = 0
matrix size = 8
fillins = 3
solver = Normal
Matrix Compiler1: 354 bytes object code size
Matrix Compiler2: 588 bytes object code size
