Circuit: * C:\Users\david\Desktop\École\Université\Undergrad\Work\finalproject\Real\Transients\OP_V-Sine_V_DC_R+(R__C__L)+R.asc

Direct Newton iteration for .op point succeeded.

Date: Wed Jun 10 17:06:37 2020
Total elapsed time: 0.095 seconds.

tnom = 27
temp = 27
method = modified trap
totiter = 2085
traniter = 2082
tranpoints = 1042
accept = 1042
rejected = 0
matrix size = 6
fillins = 0
solver = Normal
Matrix Compiler1: 164 bytes object code size  0.1/0.0/[0.0]
Matrix Compiler2: 354 bytes object code size  0.1/0.1/[0.1]

