Circuit: * C:\Users\david\Desktop\École\Université\Undergrad\Work\finalproject\Real\Transients\TRAN_V-Sine_V-DC_R+L.asc

Direct Newton iteration for .op point succeeded.

Date: Sat Jun 13 22:38:42 2020
Total elapsed time: 0.075 seconds.

tnom = 27
temp = 27
method = modified trap
totiter = 2091
traniter = 2088
tranpoints = 1045
accept = 1045
rejected = 0
matrix size = 5
fillins = 0
solver = Normal
Matrix Compiler1: 96 bytes object code size  0.1/0.0/[0.0]
Matrix Compiler2: 287 bytes object code size  0.0/0.7/[0.0]

