Circuit: * C:\Users\Jason\Downloads\Real\Real\VSourcesANDResistors\2VSource_2R.asc

Direct Newton iteration for .op point succeeded.

Date: Sat Jun 06 00:20:39 2020
Total elapsed time: 0.132 seconds.

tnom = 27
temp = 27
method = trap
totiter = 3
traniter = 0
tranpoints = 0
accept = 0
rejected = 0
matrix size = 4
fillins = 0
solver = Normal
Matrix Compiler1: 118 bytes object code size
Matrix Compiler2: 216 bytes object code size
