Circuit: * C:\Users\david\Desktop\École\Université\Undergrad\Work\finalproject\Real\VSourcesANDResistors\VSource_paraR.asc

Direct Newton iteration for .op point succeeded.

Date: Sun Jun 14 00:04:00 2020
Total elapsed time: 0.054 seconds.

tnom = 27
temp = 27
method = trap
totiter = 3
traniter = 0
tranpoints = 0
accept = 0
rejected = 0
matrix size = 2
fillins = 0
solver = Normal
Matrix Compiler1: 36 bytes object code size
Matrix Compiler2: 96 bytes object code size
