Circuit: * C:\Users\Jason\Downloads\Real\Real\CSourcesANDVSourcesANDResistors\2CSource_R.asc

ERROR: Node N002 is floating and connected to current source I2

