Circuit: * C:\Users\david\Desktop\École\Université\Undergrad\Work\finalproject\Real\CSourcesANDVSourcesANDResistors\FinalTest_VSource_CSource_R.asc

Direct Newton iteration for .op point succeeded.

Date: Fri Jun 12 00:19:03 2020
Total elapsed time: 0.068 seconds.

tnom = 27
temp = 27
method = trap
totiter = 3
traniter = 0
tranpoints = 0
accept = 0
rejected = 0
matrix size = 19
fillins = 9
solver = Normal
Matrix Compiler1: 1.02 KB object code size
Matrix Compiler2: 1.34 KB object code size
