Circuit: * C:\Users\david\Desktop\École\Université\Undergrad\Work\finalproject\Real\CSourcesANDVSourcesANDResistors\FinalTest_VSource_CSource_R.asc

Direct Newton iteration for .op point succeeded.

Date: Tue Jun 09 22:31:03 2020
Total elapsed time: 0.118 seconds.

tnom = 27
temp = 27
method = trap
totiter = 3
traniter = 0
tranpoints = 0
accept = 0
rejected = 0
matrix size = 19
fillins = 9
solver = Normal
Matrix Compiler1:      60 opcodes
Matrix Compiler2:     113 opcodes
