Circuit: * C:\Users\david\Desktop\École\Université\Undergrad\Work\finalproject\Real\CSourcesANDVSourcesANDResistors\MixCSource_VSource_R.asc

Direct Newton iteration for .op point succeeded.

Date: Sun Jun 14 00:11:31 2020
Total elapsed time: 0.285 seconds.

tnom = 27
temp = 27
method = trap
totiter = 3
traniter = 0
tranpoints = 0
accept = 0
rejected = 0
matrix size = 5
fillins = 1
solver = Normal
Matrix Compiler1: 204 bytes object code size
Matrix Compiler2: 335 bytes object code size
